!!>>>>>>>>>>>>>>>>>>>>>>>>>>>>>>>>>>>>>>>>>>>>>>>>>>>>>>>>>>>>>>>>>>>>>>
!! NEMO/OCE Configuration namelist : overwrite default values defined in SHARED/namelist_ref
!!>>>>>>>>>>>>>>>>>>>>>>>>>>>>>>>>>>>>>>>>>>>>>>>>>>>>>>>>>>>>>>>>>>>>>>
!                       NemoNordic Configuration                       !
!!======================================================================
!!              ***  Domain & Run management namelists  ***           !!
!!                                                                    !!
!!   namrun       parameters of the run
!!   namdom       space and time domain
!!   namcfg       parameters of the configuration                       (default: user defined GYRE)
!!   namwad       Wetting and drying                                    (default: OFF)
!!   namtsd       data: temperature & salinity                          (default: OFF)
!!   namcrs       coarsened grid (for outputs and/or TOP)               (ln_crs =T)
!!   namc1d       1D configuration options                              ("key_c1d")
!!   namc1d_dyndmp 1D newtonian damping applied on currents             ("key_c1d")
!!   namc1d_uvd   1D data (currents)                                    ("key_c1d")
!!======================================================================
!
!-----------------------------------------------------------------------
&namrun        !   parameters of the run
!-----------------------------------------------------------------------
   nn_no       =       0   !  Assimilation cycle index
   cn_exp      =  "KVARKEN"  !  experience name
   nn_it000    =       1   !  first time step
   nn_itend    =    794880   !  last  time step (std 5840)
   nn_date0    =  20230501   !  date at nit_0000 (format yyyymmdd) used if ln_rstart=F or (ln_rstart=T and nn_rstctl=0 or 1)
   nn_time0    =       0   !  initial time of day in hhmm
   nn_leapy    =       0   !  Leap year calendar (1) or not (0)
   ln_rstart   = .false.   !  start from rest (F) or from a restart file (T)
      ln_1st_euler = .false.  !  =T force a start with forward time step (ln_rstart=T)
      nn_rstctl    =    0     !  restart control ==> activated only if ln_rstart=T
      !                          !    = 0 nn_date0 read in namelist ; nn_it000 : read in namelist
      !                          !    = 1 nn_date0 read in namelist ; nn_it000 : check consistancy between namelist and restart
      !                          !    = 2 nn_date0 read in restart  ; nn_it000 : check consistancy between namelist and restart
      cn_ocerst_in    = "restart"   !  suffix of ocean restart name (input)
      cn_ocerst_indir = "."         !  directory from which to read input ocean restarts
      cn_ocerst_out   = "restart"   !  suffix of ocean restart name (output)
      cn_ocerst_outdir = "."        !  directory in which to write output ocean restarts
   nn_istate   =       0   !  output the initial state (1) or not (0)
   ln_rst_list = .false.   !  output restarts at list of times using nn_stocklist (T) or at set frequency with nn_stock (F)
   nn_stock    =       0   !  used only if ln_rst_list = F: output restart freqeuncy (modulo referenced to 1)
      !                          !    =  0 force to write restart files only at the end of the run
      !                          !    = -1 do not do any restart
   nn_stocklist = 0,0,0,0,0,0,0,0,0,0 ! List of timesteps when a restart file is to be written
   nn_write    =       0   !  used only if key_xios is not defined: output frequency (modulo referenced to nn_it000)
      !                          !    =  0 force to write output files only at the end of the run
      !                          !    = -1 do not do any output file
   ln_mskland  = .false.   !  mask land points in NetCDF outputs
   ln_cfmeta   = .false.   !  output additional data to netCDF files required for compliance with the CF metadata standard
   ln_clobber  = .true.    !  clobber (overwrite) an existing file
   nn_chunksz  =       0   !  chunksize (bytes) for NetCDF file (works only with iom_nf90 routines)
   ln_xios_read = .true.  !  use XIOS to read restart file (only for a single file restart)
   nn_wxios = 1      !  use XIOS to write restart file 0 - no, 1 - single file output, 2 - multiple file output
/
!-----------------------------------------------------------------------
&namdom        !   time and space domain
!-----------------------------------------------------------------------
   ln_linssh   = .false.   !  =T  linear free surface  ==>>  model level are fixed in time
   !
   rn_Dt       = 20.     !  time step for the dynamics and tracer
   rn_atfp     =    0.5    !  asselin time filter parameter
   !
   ln_crs      = .false.   !  Logical switch for coarsening module      (T => fill namcrs)
   ln_c1d      = .false.   !  Single column domain (1x1pt)              (T => fill namc1d)
   !
   ln_meshmask = .false.   !  =T create a mesh file
/

!-----------------------------------------------------------------------
&namcfg        !   parameters of the configuration                      (default: user defined GYRE)
!-----------------------------------------------------------------------
   ln_read_cfg = .true.    !  (=T) read the domain configuration file
                           !  (=F) user defined configuration           (F => create/check namusr_def)
   cn_domcfg = "domain_cfg"  ! domain configuration filename
/
!-----------------------------------------------------------------------
&namtsd        !    Temperature & Salinity Data  (init/dmp)             (default: OFF)
!-----------------------------------------------------------------------
   ln_tsd_init = .true.          !  ocean initialisation
   cn_dir      = './forcing/'      !  root directory for the T-S data location
   !___________!_________________________!___________________!___________!_____________!________!___________!__________________!__________!_______________!
   !           !  file name              ! frequency (hours) ! variable  ! time interp.!  clim  ! 'yearly'/ ! weights filename ! rotation ! land/sea mask !
   !           !                         !  (if <0  months)  !   name    !   (logical) !  (T/F) ! 'monthly' !                  ! pairing  !    filename   !
   sn_tem      =  'test_init_kvarken'    ,     -12           ,'init_temp',   .false.   , .false., 'yearly'  , ''               , ''       , ''
   sn_sal      =  'test_init_kvarken'    ,     -12           ,'init_salt',   .false.   , .false., 'yearly'  , ''               , ''       , ''
/
!-----------------------------------------------------------------------
&namc1d_uvd    !   data: U & V currents                                 (ln_c1d =T default: OFF)
!-----------------------------------------------------------------------
   !                       !  =T read U-V fields for:
   ln_uvd_init   = .true.       !  ocean initialisation
   ln_uvd_dyndmp = .false.       !  U-V restoring

   cn_dir      = './forcing/'      !  root directory for the U-V data location
   !___________!_________________________!___________________!___________!_____________!________!___________!__________________!__________!_______________!
   !           !  file name              ! frequency (hours) ! variable  ! time interp.!  clim  ! 'yearly'/ ! weights filename ! rotation ! land/sea mask !
   !           !                         !  (if <0  months)  !   name    !   (logical) !  (T/F) ! 'monthly' !                  ! pairing  !    filename   !
   sn_ucur     = 'test_force_kvarken'    ,         -12       ,'u_wind'   ,   .false.   , .false., 'yearly'  ,  ''              ,  ''      , ''
   sn_vcur     = 'test_force_kvarken'    ,         -12       ,'u_wind'   ,   .false.   , .false., 'yearly'  ,  ''              ,  ''      , ''
/
!!======================================================================
!!            ***  Surface Boundary Condition namelists  ***          !!
!!                                                                    !!
!!   namsbc          surface boundary condition manager                 (default: NO selection)
!!   namsbc_flx      flux               formulation                     (ln_flx     =T)
!!   namsbc_blk      Bulk formulae formulation                          (ln_blk     =T)
!!   namsbc_cpl      CouPLed            formulation                     ("key_oasis3" )
!!   namsbc_sas      Stand-Alone Surface module                         (SAS_SRC  only)
!!   namsbc_iif      Ice-IF: use observed ice cover                     (nn_ice = 1   )
!!   namtra_qsr      penetrative solar radiation                        (ln_traqsr  =T)
!!   namsbc_ssr      sea surface restoring term (for T and/or S)        (ln_ssr     =T)
!!   namsbc_rnf      river runoffs                                      (ln_rnf     =T)
!!   namsbc_apr      Atmospheric Pressure                               (ln_apr_dyn =T)
!!   namsbc_isf      ice shelf melting/freezing                         (ln_isfcav  =T : read (ln_read_cfg=T) or set or usr_def_zgr )
!!   namsbc_iscpl    coupling option between land ice model and ocean   (ln_isfcav  =T)
!!   namsbc_wave     external fields from wave model                    (ln_wave    =T)
!!   namberg         iceberg floats                                     (ln_icebergs=T)
!!======================================================================
!
!-----------------------------------------------------------------------
&namsbc        !   Surface Boundary Condition (surface module)          (default: NO selection)
!-----------------------------------------------------------------------
   ln_blk      = .true.    !  Bulk formulation                          (T => fill namsbc_blk )
   ln_apr_dyn  = .true.    !  Patm gradient added in ocean & ice Eqs.   (T => fill namsbc_apr )
   ln_rnf      = .false.    ! runoffs                                   (T => fill namsbc_rnf)
   ln_traqsr   = .true.    ! Light penetration in the ocean            (T => fill namtra_qsr)
   nn_fsbc     = 2         !  frequency of SBC module call
      !                    !  (control sea-ice & iceberg model call)
   nn_ice      = 2         !  =0 no ice boundary condition
      !                    !  =1 use observed ice-cover                 (  => fill namsbc_iif )
      !                    !  =2 or 3 automatically for SI3 or CICE    ("key_si3" or "key_cice")
      !                    !          except in AGRIF zoom where it has to be specified
/
!-----------------------------------------------------------------------
&namsbc_blk    !   namsbc_blk  generic Bulk formula                     (ln_blk =T)
!-----------------------------------------------------------------------
   ln_NCAR     = .true.   ! "NCAR"      algorithm   (Large and Yeager 2008)
   rn_zqt      = 2.        !  Air temperature & humidity reference height (m)
   cn_dir      = './forcing/'      !  root directory for the bulk data location

   !___________!_________________________!___________________!___________!_____________!________!___________!______________________________________!__________!_______________!
   !           !  file name              ! frequency (hours) ! variable  ! time interp.!  clim  ! 'yearly'/ !       weights filename               ! rotation ! land/sea mask !
   !           !                         !  (if <0  months)  !   name    !   (logical) !  (T/F) ! 'monthly' !                                      ! pairing  !    filename   !
   sn_wndi     = 'test_force_kvarken'    ,        -12        , 'u_wind'  ,   .false.   , .false., 'yearly'  , ''                                   , ''       , '' 
   sn_wndj     = 'test_force_kvarken'    ,        -12        , 'v_wind'  ,   .false.   , .false., 'yearly'  , ''                                   , ''       , ''
   sn_qsr      = 'test_force_kvarken'    ,        -12        , 'sw_dwn'  ,   .false.   , .false., 'yearly'  , ''                                   , ''       , ''
   sn_qlw      = 'test_force_kvarken'    ,        -12        , 'lw_dwn'  ,   .false.   , .false., 'yearly'  , ''                                   , ''       , ''
   sn_tair     = 'test_force_kvarken'    ,        -12        , 't_air'   ,   .false.   , .false., 'yearly'  , ''                                   , ''       , ''
   sn_humi     = 'test_force_kvarken'    ,        -12        , 'h_air'   ,   .false.   , .false., 'yearly'  , ''                                   , ''       , ''
   sn_prec     = 'test_force_kvarken'    ,        -12        , 'precip'  ,   .false.   , .false., 'yearly'  , ''                                   , ''       , ''
   sn_snow     = 'test_force_kvarken'    ,        -12        , 'snow'    ,   .false.   , .false., 'yearly'  , ''                                   , ''       , ''
   sn_slp      = 'test_force_kvarken'    ,        -12        , 'p_air'    ,   .false.   , .false., 'yearly'  , ''                                   , ''       , ''
!-----------------------------------------------------------------------
&namtra_qsr    !   penetrative solar radiation                          (ln_traqsr =T)
!-----------------------------------------------------------------------
   ln_qsr_rgb  = .true.       !  RGB light penetration (Red-Green-Blue)
   ln_qsr_2bd  = .false.      !  2BD light penetration (two bands)
   ln_qsr_bio  = .false.      !  bio-model light penetration
   nn_chldta   = 0            !  RGB : Chl data (=1) or cst value (=0)
   rn_abs      =   0.58       !  RGB & 2BD: fraction absorbed in the very near surface
   rn_si0      =   0.35       !  RGB & 2BD: shortess depth of extinction
   rn_si1      =   23.0       !  2BD : longest depth of extinction
/
!-----------------------------------------------------------------------
&namsbc_rnf    !   runoffs                                              (ln_rnf =T)
!-----------------------------------------------------------------------
   ln_rnf_mouth = .false. !  specific treatment at rivers mouths
   rn_avt_rnf  =   1.e-1  !  value of the additional vertical mixing coef. [m2/s] (ln_rnf_mouth=T)
   rn_hrnf     =  30.e0   !  depth over which enhanced vertical mixing is used    (ln_rnf_mouth=T)
   ln_rnf_depth = .true.   !  read in depth information for runoff
   ln_rnf_sal   = .true.   !  read in salinity information for runoff
   ln_rnf_tem  = .true.

   cn_dir      = './bc/'      !  root directory for the runoff data location
   !___________!_________________________!___________________!___________!_____________!________!___________!__________________!__________!_______________!
   !           !  file name              ! frequency (hours) ! variable  ! time interp.!  clim  ! 'yearly'/ ! weights filename ! rotation ! land/sea mask !
   !           !                         !  (if <0  months)  !   name    !   (logical) !  (T/F) ! 'monthly' !                  ! pairing  !    filename   !
   sn_rnf      = 'runoff_gofext_m1' ,   -1   , 'runoff',      .true.  , .false. , 'yearly'  , '' , '' , ''
   sn_cnf      = 'river_data_ext' ,     -1   , 'socoefr' ,    .true.  , .true. , 'yearly'  , '' , '' , ''
   sn_s_rnf    = 'SalCelSalty_ext.nc' , -1   , 'RIVERSAL',    .true.  , .true. , 'yearly'  , '' , '' , ''
   sn_t_rnf    = 'TempCel_ext.nc' ,     -1   , 'RIVERTEMP',   .true.  , .true. , 'yearly'  , '' , '' , ''
   sn_dep_rnf  = 'DepthMod_ext.nc' ,    -1   , 'RIVERDEPTH' , .false. , .true. , 'yearly'  , '' , '' , ''
/
!-----------------------------------------------------------------------
&namsbc_apr    !   Atmospheric pressure used as ocean forcing           (ln_apr_dyn =T)
!-----------------------------------------------------------------------
   cn_dir = './forcing/'        !  root directory for the Patm data location
   !___________!_________________________!___________________!___________!_____________!________!___________!__________________!__________!_______________!
   !           !  file name              ! frequency (hours) ! variable  ! time interp.!  clim  ! 'yearly'/ ! weights filename ! rotation ! land/sea mask !
   !           !                         !  (if <0  months)  !   name    !   (logical) !  (T/F) ! 'monthly' !                  ! pairing  !    filename   !
   sn_apr      = 'test_force_kvarken'    ,          -12      , 'p_air'   ,   .false.   , .false., 'yearly'  ,  ''              , ''       , ''
/
!!======================================================================
!!               ***  Lateral boundary condition  ***                 !!
!!                                                                    !!
!!   namlbc        lateral momentum boundary condition                  (default: NO selection)
!!   namagrif      agrif nested grid ( read by child model only )       ("key_agrif")
!!   nam_tide      Tidal forcing                                        (default: OFF)
!!   nambdy        Unstructured open boundaries                         (default: OFF)
!!   nambdy_dta    Unstructured open boundaries - external data         (see  nambdy)
!!   nambdy_tide   tidal forcing at open boundaries                     (default: OFF)
!!======================================================================
!
!-----------------------------------------------------------------------
&namlbc        !   lateral momentum boundary condition                  (default: NO selection)
!-----------------------------------------------------------------------
   !                       !  free slip  !   partial slip  !   no slip   ! strong slip
   rn_shlat    =  0        !  shlat = 0  !  0 < shlat < 2  !  shlat = 2  !  2 < shlat
/
!-----------------------------------------------------------------------
&nambdy        !  unstructured open boundaries                          (default: OFF)
!-----------------------------------------------------------------------
   ln_bdy         = .true.   !  Use unstructured open boundaries
   nb_bdy         = 0         !  number of open boundary sets
   ln_coords_file = .false.    !  =T : read bdy coordinates from file
      cn_coords_file = 'coordinates.bdy.nc'  !  bdy coordinates files
   ln_mask_file   = .false.   !  =T : read mask from file
      cn_mask_file = ''        !  name of mask file (if ln_mask_file=.TRUE.)
   cn_dyn2d    = 'flather'       !
   nn_dyn2d_dta   =  0        !  = 0, bdy data are equal to the initial state
      !                       !  = 1, bdy data are read in 'bdydata   .nc' files
      !                       !  = 2, use tidal harmonic forcing data from files
      !                       !  = 3, use external data AND tidal harmonic forcing
   cn_dyn3d      =  'none'    !
   nn_dyn3d_dta  =  0         !  = 0, bdy data are equal to the initial state
   !                          !  = 1, bdy data are read in 'bdydata   .nc' files
   cn_tra        =  'frs'    !
   nn_tra_dta    =  0         !  = 0, bdy data are equal to the initial state
   !                          !  = 1, bdy data are read in 'bdydata   .nc' files
   cn_ice        =  'none'    !
   nn_ice_dta    =  0         !  = 0, bdy data are equal to the initial state
   !                          !  = 1, bdy data are read in 'bdydata   .nc' files
   !
   ln_tra_dmp    =.true.     !  open boudaries conditions for tracers
   ln_dyn3d_dmp  =.false.     !  open boundary condition for baroclinic velocities
   rn_time_dmp   =  1.        !  Damping time scale in days
   rn_time_dmp_out = 1.       !  Outflow damping time scale
   nn_rimwidth   = 10         !  width of the relaxation zone
   ln_vol        = .false.    !  total volume correction (see nn_volctl parameter)
   nn_volctl     =  1         !  = 0, the total water flux across open boundaries is zero
/
!!======================================================================
!!                ***  Top/Bottom boundary condition  ***             !!
!!                                                                    !!
!!   namdrg        top/bottom drag coefficient                          (default: NO selection)
!!   namdrg_top    top    friction                                      (ln_OFF =F & ln_isfcav=T)
!!   namdrg_bot    bottom friction                                      (ln_OFF =F)
!!   nambbc        bottom temperature boundary condition                (default: OFF)
!!   nambbl        bottom boundary layer scheme                         (default: OFF)
!!======================================================================
!
!-----------------------------------------------------------------------
&namdrg        !   top/bottom drag coefficient                          (default: NO selection)
!-----------------------------------------------------------------------
   ln_loglayer = .true.   !  logarithmic drag: Cd = vkarmn/log(z/z0) |U|
   ln_drgimp   = .true.    !  implicit top/bottom friction flag
/
!-----------------------------------------------------------------------
&nambbl        !   bottom boundary layer scheme                         (default: OFF)
!-----------------------------------------------------------------------
      ln_trabbl   = .true.       !  Bottom Boundary Layer parameterisation flag
      nn_bbl_ldf  =  1        !  diffusive bbl (=1)   or not (=0)
      nn_bbl_adv  =  0        !  advective bbl (=1/2) or not (=0)
      rn_ahtbbl   =  100.     !  lateral mixing coefficient in the bbl  [m2/s]
      rn_gambbl   =  0.       !  advective bbl coefficient                 [s]
/
!!======================================================================
!!                        Tracer (T & S) namelists                    !!
!!                                                                    !!
!!   nameos        equation of state                                    (default: NO selection)
!!   namtra_adv    advection scheme                                     (default: NO selection)
!!   namtra_ldf    lateral diffusion scheme                             (default: NO selection)
!!   namtra_mle    mixed layer eddy param. (Fox-Kemper param.)          (default: OFF)
!!   namtra_eiv    eddy induced velocity param.                         (default: OFF)
!!   namtra_dmp    T & S newtonian damping                              (default: OFF)
!!======================================================================
!
!-----------------------------------------------------------------------
&nameos        !   ocean Equation Of Seawater                           (default: NO selection)
!-----------------------------------------------------------------------
   ln_teos10   = .true.          !  = Use TEOS-10
   ln_eos80    = .false.         !  = Use EOS80
   rn_a0    =   2.0e-4    !  thermal expension coefficient (nn_eos= 1 or 2)
   rn_b0     =   7.7e-4   !  saline  expension coefficient (nn_eos= 2)
   rn_lambda1  =  5.9520e-2      !  cabbeling coeff in T^2  (=0 for linear eos)
   rn_lambda2  =  7.4914e-4      !  cabbeling coeff in S^2  (=0 for linear eos)
   rn_mu1      =  1.4970e-4      !  thermobaric coeff. in T (=0 for linear eos)
   rn_mu2      =  1.1090e-5      !  thermobaric coeff. in S (=0 for linear eos)
   rn_nu       =  2.4341e-3      !  cabbeling coeff in T*S  (=0 for linear eos)
/
!-----------------------------------------------------------------------
&namtra_adv    !   advection scheme for tracer                          (default: NO selection)
!-----------------------------------------------------------------------
   ln_traadv_OFF = .false. !  No tracer advection
   ln_traadv_fct = .true. !  FCT scheme
      nn_fct_h   =  2            !  =2/4, horizontal 2nd / 4th order
      nn_fct_v   =  2            !  =2/4, vertical   2nd / COMPACT 4th order
/
!-----------------------------------------------------------------------
&namtra_ldf    !   lateral diffusion scheme for tracers                 (default: NO selection)
!-----------------------------------------------------------------------
   ln_traldf_lap   = .true.    !    laplacian operator
   ln_traldf_iso   = .true.    !  iso-neutral (standard operator)
   !                       !  Coefficients:
   nn_aht_ijk_t    = 0         !  space/time variation of eddy coefficient:
      !                             !   =-20 (=-30)    read in eddy_diffusivity_2D.nc (..._3D.nc) file
      !                             !   =  0           constant
      !                             !   = 10 F(k)      =ldf_c1d
      !                             !   = 20 F(i,j)    =ldf_c2d
      !                             !   = 21 F(i,j,t)  =Treguier et al. JPO 1997 formulation
      !                             !   = 30 F(i,j,k)  =ldf_c2d * ldf_c1d
      !                             !   = 31 F(i,j,k,t)=F(local velocity and grid-spacing)
      !                        !  time invariant coefficients:  aht0 = 1/2  Ud*Ld   (lap case)
      !                             !                           or   = 1/12 Ud*Ld^3 (blp case)
      rn_Ud        = 0.01           !  lateral diffusive velocity [m/s] (nn_aht_ijk_t= 0, 10, 20, 30)
      rn_Ld        = 200.           !  lateral diffusive length   [m]   (nn_aht_ijk_t= 0, 10)
/
!!======================================================================
!!                      ***  Dynamics namelists  ***                  !!
!!                                                                    !!
!!   nam_vvl       vertical coordinate options                          (default: z-star)
!!   namdyn_adv    formulation of the momentum advection                (default: NO selection)
!!   namdyn_vor    advection scheme                                     (default: NO selection)
!!   namdyn_hpg    hydrostatic pressure gradient                        (default: NO selection)
!!   namdyn_spg    surface pressure gradient                            (default: NO selection)
!!   namdyn_ldf    lateral diffusion scheme                             (default: NO selection)
!!   namdta_dyn    offline TOP: dynamics read in files                  (OFF_SRC only)
!!======================================================================
!
!-----------------------------------------------------------------------
&nam_vvl       !   vertical coordinate options                          (default: z-star)
!-----------------------------------------------------------------------
/
!-----------------------------------------------------------------------
&namdyn_adv    !   formulation of the momentum advection                (default: NO selection)
!-----------------------------------------------------------------------
   ln_dynadv_vec = .true.  !  vector form - 2nd centered scheme
/
!-----------------------------------------------------------------------
&namdyn_hpg    !   Hydrostatic pressure gradient option                 (default: NO selection)
!-----------------------------------------------------------------------
   ln_hpg_zco  = .false.   !  z-coordinate - full steps
   ln_hpg_zps  = .false.   !  z-coordinate - partial steps (interpolation)
   ln_hpg_sco  = .false.   !  s-coordinate (standard jacobian formulation)
   ln_hpg_isf  = .false.   !  s-coordinate (sco ) adapted to isf
   ln_hpg_djc  = .false.   !  s-coordinate (Density Jacobian with Cubic polynomial)
      ln_hpg_djc_vnh = .false.  !  hor.  bc type for djc scheme (T=von Neumann, F=linear extrapolation)
      ln_hpg_djc_vnv = .false.  !  vert. bc type for djc scheme (T=von Neumann, F=linear extrapolation)
   ln_hpg_prj  = .true.   !  s-coordinate (Pressure Jacobian scheme)
/
!-----------------------------------------------------------------------
&namdyn_spg    !   surface pressure gradient                            (default: NO selection)
!-----------------------------------------------------------------------
   ln_dynspg_exp  = .false.   ! explicit free surface
   ln_dynspg_ts   = .true.   ! split-explicit free surface
      ln_bt_fw      = .false.    ! Forward integration of barotropic Eqs.
      ln_bt_av      = .true.     ! Time filtering of barotropic variables
         nn_bt_flt     = 1          ! Time filter choice  = 0 None
         !                          !                     = 1 Boxcar over   nn_e sub-steps
         !                          !                     = 2 Boxcar over 2*nn_e  "    "
      ln_bt_auto    = .false.     ! Number of sub-step defined from:
         rn_bt_cmax   =  0.1        ! =T : the Maximum Courant Number allowed
         nn_e         = 10          ! =F : the number of sub-step in rn_Dt seconds
      rn_bt_alpha   = 0.         ! Temporal diffusion parameter (if ln_bt_av=F)
/
!-----------------------------------------------------------------------
&namdyn_vor    !   Vorticity / Coriolis scheme                          (default: NO selection)
!-----------------------------------------------------------------------
   ln_dynvor_een = .true.  !  energy & enstrophy scheme
/
!-----------------------------------------------------------------------
&namdyn_ldf    !   lateral diffusion on momentum                        (default: NO selection)
!-----------------------------------------------------------------------
   ln_dynldf_lap = .true.      !    laplacian operator
   ln_dynldf_hor = .true.      !  horizontal  (geopotential)
   ln_dynldf_iso    =  .false.  !  iso-neutral
   !                       !  Coefficient
   nn_ahm_ijk_t  = 32               !  space/time variation of eddy coefficient :
      !                             !  =-30  read in eddy_viscosity_3D.nc file
      !                             !  =-20  read in eddy_viscosity_2D.nc file
      !                             !  =  0  constant
      !                             !  = 10  F(k)=c1d
      !                             !  = 20  F(i,j)=F(grid spacing)=c2d
      !                             !  = 30  F(i,j,k)=c2d*c1d
      !                             !  = 31  F(i,j,k)=F(grid spacing and local velocity)
      !                             !  = 32  F(i,j,k)=F(local gridscale and deformation rate)
      !                        !  time invariant coefficients :  ahm = 1/2  Uv*Lv   (lap case)